// mousse: CFD toolbox

FoamFile
{
  version     2.0;
  format      ascii;
  class       dictionary;
  location    "system";
  object      controlDict;
}

application     mousse-financial;
startFrom       startTime;
startTime       0;
stopAt          endTime;
endTime         0.5;
deltaT          0.002;
writeControl    timeStep;
writeInterval   50;
purgeWrite      0;
writeFormat     ascii;
writePrecision  6;
writeCompression off;
timeFormat      general;
timePrecision   6;
runTimeModifiable true;
graphFormat     raw;

// vim: set ft=foam et sw=2 ts=2 sts=2:
