// mousse: CFD toolbox

FoamFile
{
  version     2.0;
  format      ascii;
  class       dictionary;
  object      scalarTransport.conf;
}

T
{
  #includeEtc "case_dicts/post_processing/scalar_transport/scalarTransport.conf"
  userDT true;
  DT     1e-09;
}

// vim: set ft=foam et sw=2 ts=2 sts=2:
