// mousse: CFD toolbox

FoamFile
{
  version     2.0;
  format      ascii;
  class       volScalarField;
  object      rho;
}

dimensions      [0 -3 1 0 0 1 0];
internalField   uniform 0;

boundaryField
{
  left
  {
    type            symmetryPlane;
  }
  right
  {
    type            symmetryPlane;
  }
  down
  {
    type            symmetryPlane;
  }
  up
  {
    type            zeroGradient;
  }
  hole
  {
    type            fixedValue;
    value           uniform 3.57e-05;
  }
  defaultFaces
  {
    type            empty;
  }
}

// vim: set ft=foam et sw=2 ts=2 sts=2:
