// mousse: CFD toolbox

FoamFile
{
  version     2.0;
  format      ascii;
  class       dictionary;
  location    "constant";
  object      financialProperties;
}

strike          [0 1 0 0 0 0 0] 40;
r               [0 0 -1 0 0 0 0] 0.1;
sigma           [0 0 -0.5 0 0 0 0] 0.2;
s               [0 0 -1 0 0 0 0] 0;
xi              [0 0 -0.5 0 0 0 0] 0.1;
eta             [0 0 0 0 0 0 0] 0;

// vim: set ft=foam et sw=2 ts=2 sts=2:
