// mousse: CFD toolbox

FoamFile
{
  version     2.0;
  format      ascii;
  class       volScalarField;
  location    "0";
  object      omega;
}

dimensions      [0 0 -1 0 0 0 0];
internalField   uniform 1111.11;

boundaryField
{
  lowerWall
  {
    type            omegaWallFunction;
    value           $internalField;
  }
  upperWall
  {
    type            omegaWallFunction;
    value           $internalField;
  }
  front
  {
    type            cyclic;
  }
  back
  {
    type            cyclic;
  }
  defaultFaces
  {
    type            empty;
  }
}

// vim: set ft=foam et sw=2 ts=2 sts=2:
