// mousse: CFD toolbox

FoamFile
{
  version     2.0;
  format      ascii;
  class       volVectorField;
  location    "0";
  object      U;
}

dimensions      [0 1 -1 0 0 0 0];
internalField   uniform (1 0 0);

boundaryField
{
  lowerWall
  {
    type            fixedValue;
    value           uniform (0 0 0);
  }
  upperWall
  {
    type            fixedValue;
    value           uniform (0 0 0);
  }
  front
  {
    type            cyclic;
  }
  back
  {
    type            cyclic;
  }
  defaultFaces
  {
    type            empty;
  }
}

// vim: set ft=foam et sw=2 ts=2 sts=2:
