// mousse: CFD toolbox

FoamFile
{
  version     2.0;
  format      ascii;
  class       dictionary;
  object      refineMeshDict;
}

set             c0;
coordinateSystem global;
globalCoeffs
{
  tan1            (1 0 0);
  tan2            (0 1 0);
}
directions // comment out as required
(
  tan1
  tan2
  normal
);
useHexTopology  no;
geometricCut    yes;
writeMesh       no;

// vim: set ft=foam et sw=2 ts=2 sts=2:
