// mousse: CFD toolbox

FoamFile
{
  version     2.0;
  format      ascii;
  class       dictionary;
  location    "system";
  object      controlDict.org;
}

startFrom       latestTime;
startTime       0;
stopAt          endTime;
endTime         10;
deltaT          2e-05;
writeControl    runTime;
writeInterval   0.025;
purgeWrite      0;
writeFormat     ascii;
writeCompression off;
timeFormat      general;
timePrecision   6;
runTimeModifiable true;

// vim: set ft=foam et sw=2 ts=2 sts=2:
