// mousse: CFD toolbox

FoamFile
{
  version     2.0;
  format      ascii;
  class       dictionary;
  location    "system";
  object      fvSchemes;
}

d2dt2Schemes
{
  default         steadyState;
}
gradSchemes
{
  default         Gauss cubic;
}
divSchemes
{
  default         Gauss cubic;
}
laplacianSchemes
{
  default         Gauss linear uncorrected;
}
interpolationSchemes
{
  default         cubic;
}
snGradSchemes
{
  default         uncorrected;
}

// vim: set ft=foam et sw=2 ts=2 sts=2:
