// mousse: CFD toolbox

FoamFile
{
  version     2.0;
  format      ascii;
  class       dictionary;
  location    "system";
  object      controlDict;
}

application     srf-pimple;
startFrom       startTime;
startTime       0;
stopAt          endTime;
endTime         2;
deltaT          2e-4;
writeControl    runTime;
writeInterval   2e-2;
purgeWrite      0;
writeFormat     ascii;
writePrecision  6;
writeCompression uncompressed;
timeFormat      general;
timePrecision   6;
runTimeModifiable yes;
adjustTimeStep  no;
maxCo           0.5;

// vim: set ft=foam et sw=2 ts=2 sts=2:
