// mousse: CFD toolbox

FoamFile
{
  version     2.0;
  format      ascii;
  class       volScalarField;
  object      epsilon;
}

#include        "include/initialConditions"
dimensions      [0 0 -1 0 0 0 0];
internalField   uniform $turbulentOmega;

boundaryField
{
  #include "include/fixedInlet"
  outlet
  {
    type            inletOutlet;
    inletValue      $internalField;
    value           $internalField;
  }
  wing
  {
    type            omegaWallFunction;
    value           $internalField;
  }
  #include "include/frontBackTopBottomPatches"
}

// vim: set ft=foam et sw=2 ts=2 sts=2:
