// mousse: CFD toolbox

FoamFile
{
  version     2.0;
  format      ascii;
  class       dictionary;
  location    "system";
  object      fvSolution;
}

solvers
{
  phi
  {
    solver          PCG;
    preconditioner  DIC;
    tolerance       1e-08;
    relTol          0.2;
  }
  rho
  {
    solver          smoothSolver;
    smoother        symGaussSeidel;
    tolerance       1e-08;
    relTol          0.2;
  }
}

// vim: set ft=foam et sw=2 ts=2 sts=2:
