// mousse: CFD toolbox

FoamFile
{
  version     2.0;
  format      ascii;
  class       dictionary;
  object      steadyState;
}

relaxationFactors
{
  fields
  {
    p               0.3;
  }
  equations
  {
    U               0.7;
    ".*"            0.7;
  }
}

// vim: set ft=foam et sw=2 ts=2 sts=2:
