// mousse: CFD toolbox

FoamFile
{
  version     2.0;
  format      ascii;
  class       dictionary;
  object      transient;
}

relaxationFactors
{
  fields
  {
  }
  equations
  {
    ".*"    1;
  }
}

// vim: set ft=foam et sw=2 ts=2 sts=2:
