// mousse: CFD toolbox

FoamFile
{
  version     2.0;
  format      ascii;
  class       dictionary;
  object      wallFunctionDict;
}

tabulatedWallFunction SpaldingsLaw;
invertedTableName uPlusWallFunctionData;
dx              0.2;
x0              -3;
xMax            7;
log10           yes;
bound           yes;
SpaldingsLawCoeffs
{
  kappa           0.41;
  E               9.8;
}

// vim: set ft=foam et sw=2 ts=2 sts=2:
