// mousse: CFD toolbox

FoamFile
{
  version     2.0;
  format      ascii;
  class       dictionary;
  location    "system";
  object      fvSchemes;
}

ddtSchemes
{
  default         Euler;
}
gradSchemes
{
  default         Gauss linear;
}
divSchemes
{
  default         none;
  div(phi,U)      Gauss upwind;
  div(phi,T)      Gauss upwind;
  div(phi,k)      Gauss upwind;
  div(phi,epsilon) Gauss upwind;
  div(phi,R)      Gauss upwind;
  div(R)          Gauss linear;
  div((nuEff*dev2(T(grad(U))))) Gauss linear;
}
laplacianSchemes
{
  default         Gauss linear uncorrected;
}
interpolationSchemes
{
  default         linear;
}
snGradSchemes
{
  default         uncorrected;
}

// vim: set ft=foam et sw=2 ts=2 sts=2:
