// mousse: CFD toolbox

FoamFile
{
  version     2.0;
  format      ascii;
  class       dictionary;
  location    "constant";
  object      SRFProperties;
}

SRFModel        rpm;
origin          (0 0 0);
axis            (0 0 1);
rpmCoeffs
{
  rpm             60;
}

// vim: set ft=foam et sw=2 ts=2 sts=2:
