// mousse: CFD toolbox

FoamFile
{
  version     2.0;
  format      ascii;
  class       volScalarField;
  location    "0";
  object      p_rgh;
}

dimensions      [1 -1 -2 0 0 0 0];
internalField   uniform 101325;

boundaryField
{
  //- Set patchGroups for constraint patches
  #includeEtc "caseDicts/setConstraintTypes"
  floor
  {
    type            fixedFluxPressure;
    gradient        uniform 0;
    value           uniform 101325;
  }
  ceiling
  {
    type            fixedFluxPressure;
    gradient        uniform 0;
    value           uniform 101325;
  }
  inlet
  {
    type            fixedFluxPressure;
    gradient        uniform 0;
    value           uniform 101325;
  }
  outlet
  {
    type            fixedValue;
    value           uniform 101325;
  }
  fixedWalls
  {
    type            empty;
  }
}

// vim: set ft=foam et sw=2 ts=2 sts=2:
