// mousse: CFD toolbox

FoamFile
{
  version     2.0;
  format      ascii;
  class       dictionary;
  object      minMaxMagnitude;
}

minMaxMagnitude
{
  fields ( U p );
  #includeEtc "case_dicts/post_processing/min_max/fieldMinMax.conf"
}

// vim: set ft=foam et sw=2 ts=2 sts=2:
