// mousse: CFD toolbox

FoamFile
{
  version     2.0;
  format      ascii;
  class       dictionary;
  object      staticPressure;
}

staticPressure
{
  rho 1.2; // Density to scale
  #includeEtc "case_dicts/post_processing/pressure/staticPressure.conf"
}

// vim: set ft=foam et sw=2 ts=2 sts=2:
