// mousse: CFD toolbox

FoamFile
{
  version     2.0;
  format      ascii;
  class       dictionary;
  object      totalPressureIncompressible;
}

totalPressure
{
  pRef  0.0;
  rho   1.2;
  #includeEtc "case_dicts/post_processing/pressure/totalPressureIncompressible.conf"
}

// vim: set ft=foam et sw=2 ts=2 sts=2:
