// mousse: CFD toolbox

FoamFile
{
  version     2.0;
  format      ascii;
  class       dictionary;
  location    "system";
  object      fvSchemes;
}

d2dt2Schemes
{
  default         steadyState;
}
ddtSchemes
{
  default         Euler;
}
gradSchemes
{
  default         leastSquares;
  grad(D)         leastSquares;
  grad(T)         leastSquares;
}
divSchemes
{
  default         none;
  div(sigmaD)     Gauss linear;
}
laplacianSchemes
{
  default         none;
  laplacian(DD,D) Gauss linear corrected;
  laplacian(DT,T) Gauss linear corrected;
}
interpolationSchemes
{
  default         linear;
}
snGradSchemes
{
  default         none;
}

// vim: set ft=foam et sw=2 ts=2 sts=2:
