// mousse: CFD toolbox

FoamFile
{
  version     2.0;
  format      ascii;
  class       dictionary;
  object      mirrorMeshDict;
}

planeType           pointAndNormal;
pointAndNormalDict
{
  basePoint       (0 0 0);
  normalVector    (0 1 0);
}
planeTolerance      1e-3;

// vim: set ft=foam et sw=2 ts=2 sts=2:
