// mousse: CFD toolbox

FoamFile
{
  version     2.0;
  format      ascii;
  class       dictionary;
  object      gravitationalProperties;
}

g            g           [0 1 -2 0 0 0 0]  (0 0 -9.81);
rotating     true;
Omega        Omega       [0 0 -1 0 0 0 0]  (0 0 7.292e-5);

// vim: set ft=foam et sw=2 ts=2 sts=2:
