// mousse: CFD toolbox

FoamFile
{
  version     2.0;
  format      ascii;
  class       dictionary;
  location    "system";
  object      fvSchemes;
}

ddtSchemes
{
  default         steadyState;
}
gradSchemes
{
  default         Gauss linear;
}
divSchemes
{
  default         none;
  div(phi,k)      bounded Gauss linear;
  div(phi,epsilon) bounded Gauss linear;
  div(phi,R)      bounded Gauss linear;
  div(phi,nuTilda) bounded Gauss linear;
  div((nuEff*dev2(T(grad(U))))) Gauss linear;
}
laplacianSchemes
{
  default         none;
  laplacian(nuEff,U) Gauss linear corrected;
  laplacian(DkEff,k) Gauss linear corrected;
  laplacian(DepsilonEff,epsilon) Gauss linear corrected;
  laplacian(DREff,R) Gauss linear corrected;
  laplacian(DnuTildaEff,nuTilda) Gauss linear corrected;
}
interpolationSchemes
{
  default         linear;
}
snGradSchemes
{
  default         corrected;
}

// vim: set ft=foam et sw=2 ts=2 sts=2:
