FoamFile
{
  version     2.0;
  format      ascii;
  class       dictionary;
  object      controlDict;
}

libs            ("libmousse_core.so" "libmousse_field_function_objects.so");
application     piso;
startFrom       startTime;
startTime       0;
stopAt          endTime;
endTime         0.7;
deltaT          1e-4;
writeControl    timeStep;
writeInterval   1000;
purgeWrite      0;
writeFormat     binary;
writePrecision  6;
writeCompression compressed;
timeFormat      general;
timePrecision   6;
runTimeModifiable true;

functions
{
  #include "readFields"
  #include "cuttingPlane"
  #include "streamLines"
  #include "forceCoeffs"
}

// vim: set ft=foam et sw=2 ts=2 sts=2:
