// mousse: CFD toolbox

FoamFile
{
  version     2.0;
  format      ascii;
  class       dictionary;
  location    "system";
  object      fvSolution;
}

solvers
{
  "(D|T)"
  {
    solver          GAMG;
    tolerance       1e-06;
    relTol          0.9;
    smoother        GaussSeidel;
    cacheAgglomeration true;
    nCellsInCoarsestLevel 20;
    agglomerator    faceAreaPair;
    mergeLevels     1;
  }
}
stressAnalysis
{
  compactNormalStress yes;
  nCorrectors     1;
  D               1e-06;
}

// vim: set ft=foam et sw=2 ts=2 sts=2:
