// mousse: CFD toolbox

FoamFile
{
  version     2.0;
  format      ascii;
  class       dictionary;
  object      createPatchDict;
}

// Do a synchronisation of coupled points after creation of any patches.
// Note: this does not work with points that are on multiple coupled patches
//       with transformations (i.e. cyclics).
pointSync false;
// Patches to create. An empty patch list just removes patches with zero
// faces from $FOAM_CASE/constant/polyMesh/boundary.
patches
(
);

// vim: set ft=foam et sw=2 ts=2 sts=2:
