// mousse: CFD toolbox

FoamFile
{
  version     2.0;
  format      ascii;
  note        "OpenFOAM to Fluent interface control dictionary";
  class       dictionary;
  object      foamDataToFluentDict;
}

p               1;
U               2;

// vim: set ft=foam et sw=2 ts=2 sts=2:
