// mousse: CFD toolbox

FoamFile
{
  version     2.0;
  format      ascii;
  class       dictionary;
  object      residuals;
}

residuals
{
  fields ( p U );
  #includeEtc "case_dicts/post_processing/numerical/residuals.conf"
}

// vim: set ft=foam et sw=2 ts=2 sts=2:
