// mousse: CFD toolbox

FoamFile
{
  version     2.0;
  format      ascii;
  class       dictionary;
  object      forcesCompressible;
}

forces
{
  patches     ( patch1 patch2 );
  CofR        (0 0 0);
  pitchAxis   (0 1 0);
  #includeEtc "case_dicts/post_processing/forces/forcesCompressible.conf"
}

// vim: set ft=foam et sw=2 ts=2 sts=2:
