// mousse: CFD toolbox

FoamFile
{
  version     2.0;
  format      ascii;
  class       dictionary;
  location    "system";
  object      fvSolution;
}

solvers
{
  p
  {
    solver          PCG;
    preconditioner  DIC;
    tolerance       1e-06;
    relTol          0.01;
  }
  "(Urel|k|epsilon|omega|R|nuTilda)"
  {
    solver          smoothSolver;
    smoother        symGaussSeidel;
    tolerance       1e-6;
    relTol          0.1;
  }
}
SIMPLE
{
  nNonOrthogonalCorrectors 0;
  consistent          yes;
}
relaxationFactors
{
  equations
  {
    ".*"            0.9;
  }
}

// vim: set ft=foam et sw=2 ts=2 sts=2:
