// mousse: CFD toolbox

FoamFile
{
  version     2.0;
  format      ascii;
  class       dictionary;
  object      particleTrackDict;
}

cloudName       reactingCloud1Tracks;
fields ( d U T );

// vim: set ft=foam et sw=2 ts=2 sts=2:
