// mousse: CFD toolbox

FoamFile
{
  version     2.0;
  format      ascii;
  class       dictionary;
  object      faceMinMax.conf;
}

functionObjectLibs ("libmousse_field_function_objects.so");

type            faceSource;
enabled         true;
outputControl   timeStep;
writeInterval   1;
valueOutput     false;
log             false;
source          all;
operation       max;

// vim: set ft=foam et sw=2 ts=2 sts=2:
