// mousse: CFD toolbox

FoamFile
{
  version     2.0;
  format      ascii;
  class       pointVectorField;
  location    "0.01";
  object      pointDisplacement;
}

dimensions      [0 1 0 0 0 0 0];
internalField   uniform (0 0 0);

boundaryField
{
  wing
  {
    type            calculated;
    value           uniform (0 0 0);
  }
  front
  {
    type            empty;
  }
  back
  {
    type            empty;
  }
  ".*"
  {
    type            fixedValue;
    value           uniform (0 0 0);
  }
}

// vim: set ft=foam et sw=2 ts=2 sts=2:
