// mousse: CFD toolbox

FoamFile
{
  version     2.0;
  format      ascii;
  class       dictionary;
  object      controlDict;
}

application     porous-simple;
startFrom       startTime;
startTime       0;
stopAt          endTime;
endTime         100;
deltaT          1;
writeControl    timeStep;
writeInterval   10;
purgeWrite      0;
writeFormat     ascii;
writePrecision  10;
writeCompression uncompressed;
timeFormat      general;
timePrecision   6;
runTimeModifiable yes;

// vim: set ft=foam et sw=2 ts=2 sts=2:
