// mousse: CFD toolbox

FoamFile
{
  version     2.0;
  format      ascii;
  class       dictionary;
  object      controlDict;
}

application     mousse-simple;
startFrom       latestTime;
startTime       0;
stopAt          endTime;
endTime         5000;
deltaT          1;
writeControl    timeStep;
writeInterval   50;
purgeWrite      0;
writeFormat     binary;
writePrecision  12;
writeCompression uncompressed;
timeFormat      general;
timePrecision   6;
runTimeModifiable yes;

// vim: set ft=foam et sw=2 ts=2 sts=2:
