// mousse: CFD toolbox

FoamFile
{
  version     2.0;
  format      ascii;
  class       volScalarField;
  object      p_rgh;
}

dimensions      [1 -1 -2 0 0 0 0];
internalField   uniform 1e5;

boundaryField
{
  floor
  {
    type            fixedFluxPressure;
    value           uniform 1e5;
  }
  ceiling
  {
    type            fixedFluxPressure;
    value           uniform 1e5;
  }
  fixedWalls
  {
    type            fixedFluxPressure;
    value           uniform 1e5;
  }
}

// vim: set ft=foam et sw=2 ts=2 sts=2:
