FoamFile
{
  version     2.0;
  format      ascii;
  class       dictionary;
  location    "system";
  object      fvSolution;
}

solvers
{
  T
  {
    solver          PBiCG;
    preconditioner  DILU;
    tolerance       1e-06;
    relTol          0;
  }
}

SIMPLE
{
  nNonOrthogonalCorrectors 0;
}

// vim: set ft=foam et sw=2 ts=2 sts=2:
