// mousse: CFD toolbox

FoamFile
{
  version     2.0;
  format      ascii;
  class       volVectorField;
  object      Ua;
}

dimensions      [0 1 -1 0 0 0 0];
internalField   uniform (0 0 0);

boundaryField
{
  inlet
  {
    type            fixedValue;
    value           uniform (-1 0 0);
  }
  outlet
  {
    //type            zeroGradient;
    //type            inletOutlet;
    //inletValue      uniform (0 0 0);
    type            adjointOutletVelocity;
    value           uniform (0 0 0);
  }
  upperWall
  {
    type            fixedValue;
    value           uniform (0 0 0);
  }
  lowerWall
  {
    type            fixedValue;
    value           uniform (0 0 0);
  }
  frontAndBack
  {
    type            empty;
  }
}

// vim: set ft=foam et sw=2 ts=2 sts=2:
