// mousse: CFD toolbox

FoamFile
{
  version     2.0;
  format      ascii;
  class       volScalarField;
  object      T;
}

dimensions      [0 0 0 1 0 0 0];
internalField   uniform 300;

boundaryField
{
  left
  {
    type            symmetryPlane;
  }
  right
  {
    type            zeroGradient;
  }
  down
  {
    type            symmetryPlane;
  }
  up
  {
    type            zeroGradient;
  }
  hole
  {
    type            zeroGradient;
  }
  frontAndBack
  {
    type            empty;
  }
}

// vim: set ft=foam et sw=2 ts=2 sts=2:
