// mousse: CFD toolbox

FoamFile
{
  version     2.0;
  format      ascii;
  class       volScalarField;
  location    "0";
  object      nut;
}

dimensions      [0 2 -1 0 0 0 0];
internalField   uniform 0;

boundaryField
{
  lowerWall
  {
    type            nutLowReWallFunction;
    Cmu             0.09;
    kappa           0.41;
    E               9.8;
    value           uniform 0;
  }
  upperWall
  {
    type            nutLowReWallFunction;
    Cmu             0.09;
    kappa           0.41;
    E               9.8;
    value           uniform 0;
  }
  front
  {
    type            cyclic;
  }
  back
  {
    type            cyclic;
  }
  defaultFaces
  {
    type            empty;
  }
}

// vim: set ft=foam et sw=2 ts=2 sts=2:
