// mousse: CFD toolbox

FoamFile
{
  version     2.0;
  format      ascii;
  class       dictionary;
  object      Lambda2.cfg;
}

Lambda2
{
  #includeEtc "case_dicts/post_processing/fields/Lambda2.conf"
}

// vim: set ft=foam et sw=2 ts=2 sts=2:
