// mousse: CFD toolbox

FoamFile
{
  version     2.0;
  format      ascii;
  class       dictionary;
  object      Q.conf;
}

Q
{
  #includeEtc "case_dicts/post_processing/fields/Q.conf"
}

// vim: set ft=foam et sw=2 ts=2 sts=2:
