// mousse: CFD toolbox

FoamFile
{
  version     2.0;
  format      ascii;
  class       dictionary;
  location    "system";
  object      fvSchemes;
}

ddtSchemes
{
  default         Euler;
}
gradSchemes
{
  default         Gauss linear;
}
divSchemes
{
  default         none;
  div(phi,U)      Gauss limitedLinearV 1;
  div(phi,k)      Gauss upwind;
  div(phi,epsilon) Gauss upwind;
  div(phi,R)      Gauss upwind;
  div(R)          Gauss linear;
  div(phid,p)     Gauss limitedLinear 1;
  div(phi,K)      Gauss limitedLinear 1;
  div(phi,e)      Gauss limitedLinear 1;
  div(((rho*nuEff)*dev2(T(grad(U))))) Gauss linear;
}
laplacianSchemes
{
  default         Gauss linear limited corrected 0.5;
}
interpolationSchemes
{
  default         linear;
}
snGradSchemes
{
  default         corrected;
}

// vim: set ft=foam et sw=2 ts=2 sts=2:
