// mousse: CFD toolbox

FoamFile
{
  version     2.0;
  format      ascii;
  class       dictionary;
  location    "system";
  object      fvSolution;
}

solvers
{
  p
  {
    solver          smoothSolver;
    smoother        symGaussSeidel;
    tolerance       1e-12;
    relTol          0;
  }
  rho
  {
    solver          PCG;
    preconditioner  DIC;
    tolerance       1e-08;
    relTol          0;
  }
  "(U|e|k|epsilon|R)"
  {
    $p;
    tolerance       1e-08;
    relTol          0;
  }
}
PISO
{
  nCorrectors     2;
  nNonOrthogonalCorrectors 2;
}

// vim: set ft=foam et sw=2 ts=2 sts=2:
