// mousse: CFD toolbox

FoamFile
{
  version     2.0;
  format      ascii;
  class       dictionary;
  location    "constant";
  object      mechanicalProperties;
}

rho
{
  type        uniform;
  value       7854;
}
nu
{
  type        uniform;
  value       0.3;
}
E
{
  type        uniform;
  value       2e+11;
}
planeStress     yes;

// vim: set ft=foam et sw=2 ts=2 sts=2:
