// mousse: CFD toolbox

FoamFile
{
  version     2.0;
  format      ascii;
  class       volScalarField;
  location    "0";
  object      nut;
}

dimensions      [0 2 -1 0 0 0 0];
internalField   uniform 0;

boundaryField
{
  //- Set patchGroups for constraint patches
  #includeEtc "case_dicts/setConstraintTypes"
  frontAndBack
  {
    type            calculated;
    value           uniform 0;
  }
  inlet
  {
    type            calculated;
    value           uniform 0;
  }
  outlet
  {
    type            calculated;
    value           uniform 0;
  }
  lowerWall
  {
    type            nutkWallFunction;
    value           uniform 0;
  }
  upperWall
  {
    type            calculated;
    value           uniform 0;
  }
  motorBikeGroup
  {
    type            nutkWallFunction;
    value           uniform 0;
  }
}

// vim: set ft=foam et sw=2 ts=2 sts=2:
