// mousse: CFD toolbox

FoamFile
{
  version     2.0;
  format      ascii;
  class       dictionary;
  object      patchAverage;
}

patchAverage
{
  patch  <patchName>;
  fields ( p );
  operation average;
  #includeEtc "case_dicts/post_processing/face_source/patchSource.conf";
}

// vim: set ft=foam et sw=2 ts=2 sts=2:
