// mousse: CFD toolbox

FoamFile
{
  version     2.0;
  format      ascii;
  class       dictionary;
  object      controlDict;
}

application     shallow-water;
startFrom       startTime;
startTime       0;
stopAt          endTime;
endTime         100;
deltaT          0.1;
writeControl    runTime;
writeInterval   1;
purgeWrite      0;
writeFormat     ascii;
writePrecision  12;
writeCompression on;
timeFormat      general;
timePrecision   6;
runTimeModifiable false;

// vim: set ft=foam et sw=2 ts=2 sts=2:
