// mousse: CFD toolbox

FoamFile
{
  version     2.0;
  format      ascii;
  class       dictionary;
  object      fvSchemes;
}

ddtSchemes
{
  default         CrankNicolson 0.9;
}
gradSchemes
{
  default         Gauss linear;
}
divSchemes
{
  default         none;
  div(phiv,hU)    Gauss LUST un;
}
laplacianSchemes
{
  default         Gauss linear uncorrected;
}
interpolationSchemes
{
  default         linear;
}
snGradSchemes
{
  default         uncorrected;
}

// vim: set ft=foam et sw=2 ts=2 sts=2:
