FoamFile
{
    version     2.0;
    format      ascii;
    class       volScalarField;
    object      p;
}

dimensions      [0 2 -2 0 0 0 0];

internalField   uniform 0;

boundaryField
{
    down
    {
        type            symmetryPlane;
    }

    right
    {
        type            fixedValue;
        value           uniform 0;
    }

    up
    {
        type            symmetryPlane;
    }

    left
    {
        type            zeroGradient;
    }

    cylinder
    {
        type            symmetry;
    }

    defaultFaces
    {
        type            empty;
    }
}

// vim: set ft=foam et sw=4 ts=4 sts=4:
