// mousse: CFD toolbox

FoamFile
{
  version     2.0;
  format      ascii;
  class       volScalarField;
  location    "0";
  object      k;
}

dimensions      [0 2 -2 0 0 0 0];
internalField   uniform 0.1;

boundaryField
{
  //- Set patchGroups for constraint patches
  #includeEtc "case_dicts/setConstraintTypes"
  wall
  {
    type            kqRWallFunction;
    value           uniform 0.1;
  }
}

// vim: set ft=foam et sw=2 ts=2 sts=2:
