// mousse: CFD toolbox

FoamFile
{
  version     2.0;
  format      ascii;
  class       dictionary;
  location    "constant";
  object      thermophysicalProperties;
}

thermoType
{
  type            heRhoThermo;
  mixture         pureMixture;
  transport       const;
  thermo          hConst;
  equationOfState perfectGas;
  specie          specie;
  energy          sensibleEnthalpy;
}
pRef            100000;
mixture
{
  specie
  {
    nMoles          1;
    molWeight       28.9;
  }
  thermodynamics
  {
    Cp              1000;
    Hf              0;
  }
  transport
  {
    mu              1.8e-05;
    Pr              0.7;
  }
}

// vim: set ft=foam et sw=2 ts=2 sts=2:
