// mousse: CFD toolbox

FoamFile
{
  version     2.0;
  format      ascii;
  class       dictionary;
  object      particleTrackProperties;
}

cloudName       reactingCloud1;
sampleFrequency 1;
maxPositions    1000000;
setFormat       vtk;    // see sampleDict for set formats

// vim: set ft=foam et sw=2 ts=2 sts=2:
