// mousse: CFD toolbox

FoamFile
{
  version     2.0;
  format      ascii;
  class       dictionary;
  location    "constant";
  object      transportProperties;
}

Ubar            [0 1 -1 0 0 0 0] (10 0 0);
transportModel  Newtonian;
nu              [0 2 -1 0 0 0 0] 1e-8;

// vim: set ft=foam et sw=2 ts=2 sts=2:
