// mousse: CFD toolbox

FoamFile
{
  version     2.0;
  format      ascii;
  class       dictionary;
  object      flowRatePatch;
}

// This packaged function object sums the flux phi on patch faces so the
// calculated volume flow rate for solvers where phi = volumetric flux, and
// mass flow rate for solvers where phi = mass flux.
flowRatePatch
{
  patch <patchName>;
  #includeEtc "case_dicts/post_processing/flow_rate/flowRatePatch.conf"
}

// vim: set ft=foam et sw=2 ts=2 sts=2:
