// mousse: CFD toolbox

FoamFile
{
  version     2.0;
  format      ascii;
  class       dictionary;
  object      pressureDifferenceSurface;
}

pressureDifferenceSurface
{
  triSurface1 <triSurface1>;
  triSurface2 <triSurface2>;
  #includeEtc "case_dicts/post_processing/pressure/pressureDifferenceSurface.conf"
}

// vim: set ft=foam et sw=2 ts=2 sts=2:
