// mousse: CFD toolbox

FoamFile
{
  version     2.0;
  format      ascii;
  class       dictionary;
  object      totalPressureCompressible;
}

totalPressure
{
  pRef  0.0;
  #includeEtc "case_dicts/post_processing/pressure/totalPressureCompressible.conf"
}

// vim: set ft=foam et sw=2 ts=2 sts=2:
