FoamFile
{
  version     2.0;
  format      ascii;
  class       dictionary;
  location    "system";
  object      mapFieldsDict;
}

patchMap        ( lid movingWall );

cuttingPatches  ( fixedWalls );

// vim: set ft=foam et sw=2 ts=2 sts=2:
